L24/1726525/Linhas.dss
! ==========================================================
! LINHAS — geradas de SSDMT
! Barras = PAC_1 / PAC_2 da BDGD (preservados)
! ==========================================================
New Line.244376860 Bus1=node_427712358.2 Bus2=node_427911142.2 LineCode=CND_907_1F Length=130.87 Units=m
New Line.244552923 Bus1=node_428731364.1 Bus2=node_428731314.1 LineCode=CND_907_1F Length=140.47 Units=m
New Line.246417231 Bus1=node_438255294.1 Bus2=node_438255289.1 LineCode=CND_907_1F Length=137.76 Units=m
New Line.247820581 Bus1=node_445040655.1.2.3 Bus2=node_445040109.1.2.3 LineCode=CND_50_3F Length=32.35 Units=m
New Line.2646522008 Bus1=node_2808955717.1 Bus2=node_2808956328.1 LineCode=CND_915_1F Length=51.51 Units=m
New Line.244553741 Bus1=node_428911512.1.2.3 Bus2=node_428911513.1.2.3 LineCode=CND_11_3F Length=124.00 Units=m
New Line.246417883 Bus1=node_438443196.1 Bus2=node_438443176.1 LineCode=CND_907_1F Length=143.51 Units=m
New Line.247820860 Bus1=node_445042060.3 Bus2=node_445041979.3 LineCode=CND_909_1F Length=30.28 Units=m
New Line.246416236 Bus1=node_438074205.1 Bus2=node_438074250.1 LineCode=CND_907_1F Length=184.28 Units=m
New Line.244377968 Bus1=node_428079861.2 Bus2=node_428079862.2 LineCode=CND_907_1F Length=102.30 Units=m
New Line.244376498 Bus1=node_427711807.1.2.3 Bus2=node_427711787.1.2.3 LineCode=CND_11_3F Length=117.49 Units=m
New Line.244378455 Bus1=node_428081487.2 Bus2=node_428254057.2 LineCode=CND_907_1F Length=194.91 Units=m
New Line.244378649 Bus1=node_428254797.1 Bus2=node_428254946.1 LineCode=CND_907_1F Length=181.00 Units=m
New Line.244377586 Bus1=node_428077947.2 Bus2=node_428077948.2 LineCode=CND_907_1F Length=88.19 Units=m
New Line.246174349 Bus1=node_437405896.3 Bus2=node_437405786.3 LineCode=CND_907_1F Length=238.84 Units=m
New Line.247366622 Bus1=node_442981077.3 Bus2=node_442981078.3 LineCode=CND_902_1F Length=56.23 Units=m
New Line.1903410015 Bus1=node_437407301.3 Bus2=node_2222574496.3 LineCode=CND_907_1F Length=4.84 Units=m
New Line.244378113 Bus1=node_428080562.3 Bus2=node_428080587.3 LineCode=CND_907_1F Length=71.53 Units=m
New Line.243845148 Bus1=node_425441269.1.2.3 Bus2=node_425441394.1.2.3 LineCode=CND_28_3F Length=36.36 Units=m
New Line.244553649 Bus1=node_428911052.3 Bus2=node_428911032.3 LineCode=CND_907_1F Length=149.09 Units=m
New Line.244379287 Bus1=node_428255177.2 Bus2=node_428081681.2 LineCode=CND_907_1F Length=135.02 Units=m
New Line.244829521 Bus1=node_430488046.2 Bus2=node_430488047.2 LineCode=CND_907_1F Length=140.93 Units=m
New Line.247366426 Bus1=node_442980061.1 Bus2=node_442980080.1 LineCode=CND_907_1F Length=115.17 Units=m
New Line.247821228 Bus1=node_445042350.1.2.3 Bus2=node_445091244.1.2.3 LineCode=CND_50_3F Length=30.17 Units=m
New Line.243842099 Bus1=node_425483049.1.2.3 Bus2=node_425631027.1.2.3 LineCode=CND_50_3F Length=35.56 Units=m
New Line.1727974312 Bus1=node_429077798.1.2.3 Bus2=node_2053996292.1.2.3 LineCode=CND_11_3F Length=5.23 Units=m
New Line.1362483261 Bus1=node_1622476014.1.2.3 Bus2=node_1657104423.1.2.3 LineCode=CND_20_3F Length=4.62 Units=m
New Line.244554162 Bus1=node_428913621.3 Bus2=node_428913551.3 LineCode=CND_907_1F Length=133.69 Units=m
New Line.246416616 Bus1=node_438076157.1.2.3 Bus2=node_425441558.1.2.3 LineCode=CND_88_3F Length=49.77 Units=m
New Line.246526121 Bus1=node_439126126.2 Bus2=node_439126127.2 LineCode=CND_907_1F Length=297.45 Units=m
New Line.244378505 Bus1=node_428253857.3 Bus2=node_428254307.3 LineCode=CND_907_1F Length=279.82 Units=m
New Line.246418023 Bus1=node_438443895.1 Bus2=node_438443901.1 LineCode=CND_907_1F Length=58.93 Units=m
New Line.246352057 Bus1=node_437740517.3 Bus2=node_437740523.3 LineCode=CND_907_1F Length=431.90 Units=m
New Line.244555060 Bus1=node_429076997.3 Bus2=node_429073813.3 LineCode=CND_907_1F Length=142.43 Units=m
New Line.244553936 Bus1=node_428912491.1.2.3 Bus2=node_428912492.1.2.3 LineCode=CND_11_3F Length=117.69 Units=m
New Line.244376942 Bus1=node_427911551.2 Bus2=node_427910846.2 LineCode=CND_907_1F Length=122.98 Units=m
New Line.2079026083 Bus1=node_2391384692.2 Bus2=node_2391384702.2 LineCode=CND_910_1F Length=303.44 Units=m
New Line.244552301 Bus1=node_428569368.1 Bus2=node_428569369.1 LineCode=CND_907_1F Length=80.93 Units=m
New Line.244378910 Bus1=node_428254957.1.2.3 Bus2=node_428256336.1.2.3 LineCode=CND_19_3F Length=41.08 Units=m
New Line.246416980 Bus1=node_438077952.1 Bus2=node_438077976.1 LineCode=CND_907_1F Length=164.62 Units=m
New Line.244379719 Bus1=node_428414964.2 Bus2=node_428254656.2 LineCode=CND_907_1F Length=112.78 Units=m
New Line.243845128 Bus1=node_425441293.1.2.3 Bus2=node_425441294.1.2.3 LineCode=CND_28_3F Length=28.14 Units=m
New Line.246694745 Bus1=node_439128906.3 Bus2=node_439295093.3 LineCode=CND_907_1F Length=322.70 Units=m
New Line.245003209 Bus1=node_430845520.3 Bus2=node_430845521.3 LineCode=CND_907_1F Length=69.45 Units=m
New Line.246174908 Bus1=node_437571863.3 Bus2=node_437571813.3 LineCode=CND_907_1F Length=77.26 Units=m
New Line.484912849 Bus1=node_755065669.2 Bus2=node_428731114.2 LineCode=CND_902_1F Length=5.28 Units=m
New Line.244554101 Bus1=node_428913272.2 Bus2=node_428913317.2 LineCode=CND_907_1F Length=215.72 Units=m
New Line.244553323 Bus1=node_428733368.1 Bus2=node_428733328.1 LineCode=CND_907_1F Length=134.71 Units=m
New Line.244380081 Bus1=node_428567068.1 Bus2=node_428413853.1 LineCode=CND_907_1F Length=169.84 Units=m
New Line.247820862 Bus1=node_445041745.1.2.3 Bus2=node_445042180.1.2.3 LineCode=CND_50_3F Length=38.18 Units=m
New Line.244733613 Bus1=node_2724264048.1.2.3 Bus2=node_429608838.1.2.3 LineCode=CND_11_3F Length=38.01 Units=m
New Line.247820222 Bus1=node_445038975.3 Bus2=node_445038976.3 LineCode=CND_909_1F Length=35.54 Units=m
New Line.533988969 Bus1=node_804073057.1 Bus2=node_804073010.1 LineCode=CND_907_1F Length=83.81 Units=m
New Line.246416776 Bus1=node_438075903.1 Bus2=node_438076442.1 LineCode=CND_907_1F Length=148.40 Units=m
New Line.244552842 Bus1=node_428730959.1.2.3 Bus2=node_428730960.1.2.3 LineCode=CND_51_3F Length=139.70 Units=m
New Line.244378009 Bus1=node_427911981.3 Bus2=node_428078522.3 LineCode=CND_907_1F Length=129.99 Units=m
New Line.1164790930 Bus1=node_1436228142.2 Bus2=node_1436228176.2 LineCode=CND_915_1F Length=49.00 Units=m
New Line.244379207 Bus1=node_428412399.1.2.3 Bus2=node_428412405.1.2.3 LineCode=CND_11_3F Length=175.13 Units=m
New Line.244377044 Bus1=node_427912065.1 Bus2=node_427912066.1 LineCode=CND_907_1F Length=85.40 Units=m
New Line.244378290 Bus1=node_428081471.1.2.3 Bus2=node_428081472.1.2.3 LineCode=CND_11_3F Length=154.60 Units=m
New Line.244553244 Bus1=node_428732759.3 Bus2=node_428730659.3 LineCode=CND_907_1F Length=119.05 Units=m
New Line.244379589 Bus1=node_428413929.3 Bus2=node_428256415.3 LineCode=CND_907_1F Length=124.10 Units=m
New Line.1065672128 Bus1=node_428732145.3 Bus2=node_1332535810.3 LineCode=CND_926_1F Length=4.11 Units=m
New Line.247820276 Bus1=node_428078682.2 Bus2=node_445039246.2 LineCode=CND_909_1F Length=87.16 Units=m
New Line.244378568 Bus1=node_428254617.3 Bus2=node_428254622.3 LineCode=CND_907_1F Length=140.33 Units=m
New Line.807783106 Bus1=node_1079228603.1.2.3 Bus2=node_1079228628.1.2.3 LineCode=CND_22_3F Length=68.15 Units=m
New Line.244552716 Bus1=node_428570428.1.2.3 Bus2=node_428570457.1.2.3 LineCode=CND_11_3F Length=132.82 Units=m
New Line.244552361 Bus1=node_428569614.1.2.3 Bus2=node_428569669.1.2.3 LineCode=CND_11_3F Length=123.45 Units=m
New Line.246417832 Bus1=node_438258299.1 Bus2=node_438258300.1 LineCode=CND_907_1F Length=130.33 Units=m
New Line.244552682 Bus1=node_428569334.3 Bus2=node_428569728.3 LineCode=CND_907_1F Length=86.70 Units=m
New Line.244552422 Bus1=node_428569977.1.2.3 Bus2=node_428569978.1.2.3 LineCode=CND_19_3F Length=36.95 Units=m
New Line.2530649540 Bus1=node_2630866399.3 Bus2=node_2630866394.3 LineCode=CND_926_1F Length=177.55 Units=m
New Line.2430820606 Bus1=node_2603937451.3 Bus2=node_2603937654.3 LineCode=CND_926_1F Length=64.72 Units=m
New Line.246416066 Bus1=node_437850107.1.2.3 Bus2=node_437850112.1.2.3 LineCode=CND_253_3F Length=63.44 Units=m
New Line.244733467 Bus1=node_429608159.1.2.3 Bus2=node_429608313.1.2.3 LineCode=CND_11_3F Length=123.97 Units=m
New Line.244552789 Bus1=node_428730694.1 Bus2=node_428730695.1 LineCode=CND_907_1F Length=103.36 Units=m
New Line.244554992 Bus1=node_429076633.3 Bus2=node_429076658.3 LineCode=CND_902_1F Length=33.29 Units=m
New Line.246417954 Bus1=node_438443326.2 Bus2=node_438443550.2 LineCode=CND_907_1F Length=80.99 Units=m
New Line.244378795 Bus1=node_428255756.2 Bus2=node_428080126.2 LineCode=CND_907_1F Length=245.24 Units=m
New Line.244553194 Bus1=node_428732723.3 Bus2=node_428732724.3 LineCode=CND_907_1F Length=72.47 Units=m
New Line.246525445 Bus1=node_1907901623.1.2.3 Bus2=node_438963869.1.2.3 LineCode=CND_11_3F Length=51.54 Units=m
New Line.244554374 Bus1=node_428914642.3 Bus2=node_428914621.3 LineCode=CND_907_1F Length=74.67 Units=m
New Line.244553633 Bus1=node_428910953.1 Bus2=node_428910973.1 LineCode=CND_907_1F Length=100.81 Units=m
New Line.246173561 Bus1=node_437241750.3 Bus2=node_437243075.3 LineCode=CND_1209_1F Length=93.17 Units=m
New Line.351678190 Bus1=100_697676445.1.2.3 Bus2=node_428413410.1.2.3 LineCode=CND_13_3F Length=29.79 Units=m
New Line.247366606 Bus1=node_442980997.1 Bus2=node_442980967.1 LineCode=CND_902_1F Length=25.39 Units=m
New Line.247748439 Bus1=node_444761600.1.2.3 Bus2=node_444761601.1.2.3 LineCode=CND_20_3F Length=24.69 Units=m
New Line.246524441 Bus1=node_438799970.3 Bus2=node_438799971.3 LineCode=CND_907_1F Length=118.19 Units=m
New Line.244552995 Bus1=node_428731724.1.2.3 Bus2=node_428731725.1.2.3 LineCode=CND_19_3F Length=81.10 Units=m
New Line.244376546 Bus1=node_427711968.3 Bus2=node_427712048.3 LineCode=CND_907_1F Length=118.34 Units=m
New Line.244553627 Bus1=node_428910918.1.2.3 Bus2=node_428910943.1.2.3 LineCode=CND_13_3F Length=109.06 Units=m
New Line.1658171601 Bus1=node_1979294898.1.2.3 Bus2=node_1979294909.1.2.3 LineCode=CND_10_3F Length=35.02 Units=m
New Line.247820772 Bus1=node_428733724.3 Bus2=node_445041730.3 LineCode=CND_909_1F Length=66.57 Units=m
New Line.246174990 Bus1=node_437572269.2 Bus2=node_437572274.2 LineCode=CND_907_1F Length=134.55 Units=m
New Line.244379578 Bus1=node_428414263.2 Bus2=node_428414264.2 LineCode=CND_907_1F Length=111.85 Units=m
New Line.244380036 Bus1=node_428416419.1 Bus2=node_428415888.1 LineCode=CND_907_1F Length=151.86 Units=m
New Line.247366661 Bus1=node_442981272.3 Bus2=node_442981222.3 LineCode=CND_902_1F Length=40.34 Units=m
New Line.244378041 Bus1=node_1309554615.1.2.3 Bus2=node_428080227.1.2.3 LineCode=CND_11_3F Length=66.55 Units=m
New Line.244554154 Bus1=node_428913537.2 Bus2=node_428913582.2 LineCode=CND_907_1F Length=91.91 Units=m
New Line.244379865 Bus1=node_428415698.3 Bus2=node_428415699.3 LineCode=CND_907_1F Length=107.46 Units=m
New Line.1042781249 Bus1=node_1309348712.1.2.3 Bus2=node_1309349043.1.2.3 LineCode=CND_20_3F Length=1.91 Units=m
New Line.246416069 Bus1=node_437850126.1.2.3 Bus2=node_437850127.1.2.3 LineCode=CND_88_3F Length=42.92 Units=m
New Line.246417585 Bus1=node_438257064.1 Bus2=node_438257065.1 LineCode=CND_907_1F Length=180.80 Units=m
New Line.246525702 Bus1=node_438963489.1.2.3 Bus2=node_438965154.1.2.3 LineCode=CND_13_3F Length=103.54 Units=m
New Line.2190974856 Bus1=node_2469926099.3 Bus2=node_2496780654.3 LineCode=CND_907_1F Length=2.95 Units=m
New Line.244377290 Bus1=node_427910342.2 Bus2=node_427913296.2 LineCode=CND_907_1F Length=107.14 Units=m
New Line.244379899 Bus1=node_428415794.1 Bus2=node_428415869.1 LineCode=CND_907_1F Length=100.57 Units=m
New Line.807783076 Bus1=node_1079228418.1.2.3 Bus2=node_1079228578.1.2.3 LineCode=CND_22_3F Length=88.47 Units=m
New Line.244378501 Bus1=node_428254212.3 Bus2=node_428254287.3 LineCode=CND_907_1F Length=92.63 Units=m
New Line.244376633 Bus1=node_427909987.3 Bus2=node_427712457.3 LineCode=CND_907_1F Length=99.92 Units=m
New Line.244554142 Bus1=node_428913412.2 Bus2=node_428913522.2 LineCode=CND_907_1F Length=414.62 Units=m
New Line.244377581 Bus1=node_427913151.1 Bus2=node_428077923.1 LineCode=CND_907_1F Length=190.67 Units=m
New Line.2496518947 Bus1=node_2655388579.1.2.3 Bus2=node_2655388628.1.2.3 LineCode=CND_51_3F Length=164.37 Units=m
New Line.244377112 Bus1=node_427911861.2 Bus2=node_427912406.2 LineCode=CND_907_1F Length=144.34 Units=m
New Line.246352061 Bus1=node_437241670.3 Bus2=node_437740543.3 LineCode=CND_907_1F Length=55.64 Units=m
New Line.244379835 Bus1=node_428415548.2 Bus2=node_428415243.2 LineCode=CND_907_1F Length=151.88 Units=m
New Line.246526173 Bus1=node_438965894.3 Bus2=node_438965868.3 LineCode=CND_907_1F Length=50.77 Units=m
New Line.244553402 Bus1=node_428733763.3 Bus2=node_428733764.3 LineCode=CND_902_1F Length=36.61 Units=m
New Line.244376782 Bus1=node_427910751.1.2.3 Bus2=node_427910752.1.2.3 LineCode=CND_11_3F Length=106.84 Units=m
New Line.246416676 Bus1=node_438076457.3 Bus2=node_438075927.3 LineCode=CND_907_1F Length=108.93 Units=m
New Line.244378864 Bus1=node_428256047.3 Bus2=node_428080996.3 LineCode=CND_907_1F Length=50.02 Units=m
New Line.246352073 Bus1=node_435373429.3 Bus2=node_425302461.3 LineCode=CND_990_1F Length=686.53 Units=m
New Line.244379735 Bus1=node_428415048.2 Bus2=node_428257190.2 LineCode=CND_907_1F Length=94.79 Units=m
New Line.244830474 Bus1=node_430662560.3 Bus2=node_430664514.3 LineCode=CND_907_1F Length=256.95 Units=m
New Line.244378639 Bus1=node_428254882.1.2.3 Bus2=node_428254956.1.2.3 LineCode=CND_19_3F Length=41.14 Units=m
New Line.244380013 Bus1=node_428416438.1 Bus2=node_428416408.1 LineCode=CND_907_1F Length=55.63 Units=m
New Line.246226458 Bus1=node_437846739.1.2.3 Bus2=node_437846740.1.2.3 LineCode=CND_523_3F Length=29.89 Units=m
New Line.246352546 Bus1=node_437241505.3 Bus2=node_437574376.3 LineCode=CND_907_1F Length=421.90 Units=m
New Line.244554156 Bus1=node_428913487.3 Bus2=node_428913376.3 LineCode=CND_907_1F Length=121.94 Units=m
New Line.244377180 Bus1=node_427910562.3 Bus2=node_427910306.3 LineCode=CND_907_1F Length=90.66 Units=m
New Line.244554322 Bus1=node_428914402.1.2.3 Bus2=node_427711417.1.2.3 LineCode=CND_11_3F Length=134.33 Units=m
New Line.244553358 Bus1=node_428569744.1 Bus2=node_428569738.1 LineCode=CND_907_1F Length=139.07 Units=m
New Line.244551915 Bus1=node_428416109.1 Bus2=node_428567439.1 LineCode=CND_907_1F Length=120.66 Units=m
New Line.244554581 Bus1=node_429074584.1 Bus2=node_429074599.1 LineCode=CND_907_1F Length=129.70 Units=m
New Line.244555015 Bus1=node_429076748.3 Bus2=node_429076697.3 LineCode=CND_902_1F Length=45.37 Units=m
New Line.244552088 Bus1=node_428568303.1 Bus2=node_428568304.1 LineCode=CND_907_1F Length=166.09 Units=m
New Line.244377422 Bus1=node_427913446.1 Bus2=node_427913956.1 LineCode=CND_907_1F Length=334.62 Units=m
New Line.246526214 Bus1=node_439126576.2 Bus2=node_439126592.2 LineCode=CND_907_1F Length=192.02 Units=m
New Line.244380043 Bus1=node_428257661.2 Bus2=node_428412559.2 LineCode=CND_907_1F Length=88.54 Units=m
New Line.246173263 Bus1=node_437241584.3 Bus2=node_437241585.3 LineCode=CND_907_1F Length=84.40 Units=m
New Line.244552872 Bus1=node_428731109.1.2.3 Bus2=node_428731110.1.2.3 LineCode=CND_19_3F Length=37.16 Units=m
New Line.244555786 Bus1=node_429239509.1 Bus2=node_429239510.1 LineCode=CND_907_1F Length=174.20 Units=m
New Line.2306191471 Bus1=node_436005917.1.2.3 Bus2=node_2579015075.1.2.3 LineCode=CND_51_3F Length=27.98 Units=m
New Line.244379763 Bus1=node_428415188.3 Bus2=node_428415189.3 LineCode=CND_907_1F Length=196.97 Units=m
New Line.244555018 Bus1=node_429076638.1 Bus2=node_428732908.1 LineCode=CND_907_1F Length=145.77 Units=m
New Line.842551672 Bus1=node_1111798781.1 Bus2=node_1111798792.1 LineCode=CND_907_1F Length=87.56 Units=m
New Line.247366412 Bus1=node_442980015.1 Bus2=node_442980016.1 LineCode=CND_907_1F Length=146.41 Units=m
New Line.244552604 Bus1=node_428570023.3 Bus2=node_428570888.3 LineCode=CND_907_1F Length=278.80 Units=m
New Line.246417312 Bus1=node_438255694.1 Bus2=node_438255700.1 LineCode=CND_907_1F Length=173.05 Units=m
New Line.244554552 Bus1=node_429074214.2 Bus2=node_429074454.2 LineCode=CND_907_1F Length=94.06 Units=m
New Line.244377357 Bus1=node_427910357.2 Bus2=node_427913220.2 LineCode=CND_907_1F Length=126.93 Units=m
New Line.247748492 Bus1=node_444761865.1.2.3 Bus2=node_444761866.1.2.3 LineCode=CND_20_3F Length=45.29 Units=m
New Line.243845126 Bus1=node_425441283.1.2.3 Bus2=node_425441284.1.2.3 LineCode=CND_28_3F Length=36.77 Units=m
New Line.244379903 Bus1=node_428415888.1 Bus2=node_428415889.1 LineCode=CND_907_1F Length=244.60 Units=m
New Line.1583485707 Bus1=node_1903766830.1.2.3 Bus2=node_1903766872.1.2.3 LineCode=CND_51_3F Length=117.09 Units=m
New Line.244553773 Bus1=node_428910518.1.2.3 Bus2=node_428732444.1.2.3 LineCode=CND_13_3F Length=150.69 Units=m
New Line.244553387 Bus1=node_428733569.3 Bus2=node_428733689.3 LineCode=CND_907_1F Length=166.45 Units=m
New Line.244552173 Bus1=node_428568728.2 Bus2=node_428568729.2 LineCode=CND_907_1F Length=251.82 Units=m
New Line.247366501 Bus1=100_351628992.1.2.3 Bus2=node_442980464.1.2.3 LineCode=CND_19_3F Length=27.12 Units=m
New Line.244377743 Bus1=node_427911936.1 Bus2=node_428078733.1 LineCode=CND_907_1F Length=133.94 Units=m
New Line.244378150 Bus1=node_428080771.1 Bus2=node_428080772.1 LineCode=CND_907_1F Length=261.53 Units=m
New Line.244554605 Bus1=node_429074684.1 Bus2=node_429074583.1 LineCode=CND_907_1F Length=154.50 Units=m
New Line.244377741 Bus1=node_428078523.3 Bus2=node_428078723.3 LineCode=CND_907_1F Length=123.39 Units=m
New Line.244553895 Bus1=node_428911948.3 Bus2=node_428912283.3 LineCode=CND_907_1F Length=123.37 Units=m
New Line.246694810 Bus1=node_439127816.3 Bus2=node_439126551.3 LineCode=CND_907_1F Length=328.06 Units=m
New Line.244379087 Bus1=node_428255477.3 Bus2=node_428257221.3 LineCode=CND_907_1F Length=102.80 Units=m
New Line.244552019 Bus1=node_428567854.1 Bus2=node_428416213.1 LineCode=CND_907_1F Length=142.75 Units=m
New Line.243842779 Bus1=node_425798699.1.2.3 Bus2=node_425798719.1.2.3 LineCode=CND_13_3F Length=109.88 Units=m
New Line.1419008122 Bus1=100_1419008165.1 Bus2=node_438256999.1 LineCode=CND_907_1F Length=125.38 Units=m
New Line.246697406 Bus1=node_439789076.2 Bus2=node_439789305.2 LineCode=CND_907_1F Length=104.71 Units=m
New Line.244378360 Bus1=node_428253581.2 Bus2=node_428253576.2 LineCode=CND_907_1F Length=195.43 Units=m
New Line.246415504 Bus1=node_425441264.1.2.3 Bus2=node_437847263.1.2.3 LineCode=CND_30_3F Length=132.56 Units=m
New Line.244378629 Bus1=node_428254757.3 Bus2=node_428254781.3 LineCode=CND_907_1F Length=144.02 Units=m
New Line.1579251725 Bus1=node_1899107639.1.2.3 Bus2=node_1899107658.1.2.3 LineCode=CND_10_3F Length=37.09 Units=m
New Line.246694720 Bus1=node_439294962.2 Bus2=node_439294968.2 LineCode=CND_907_1F Length=296.41 Units=m
New Line.247820461 Bus1=node_445040174.1.2.3 Bus2=node_445040175.1.2.3 LineCode=CND_20_3F Length=34.35 Units=m
New Line.244377050 Bus1=node_427912081.3 Bus2=node_427912096.3 LineCode=CND_902_1F Length=25.30 Units=m
New Line.2415139126 Bus1=node_2601520631.2 Bus2=node_2601520641.2 LineCode=CND_907_1F Length=66.45 Units=m
New Line.244376495 Bus1=node_427711792.2 Bus2=node_427711793.2 LineCode=CND_907_1F Length=200.27 Units=m
New Line.246173226 Bus1=node_425302462.3 Bus2=node_437241400.3 LineCode=CND_907_1F Length=154.15 Units=m
New Line.1071915593 Bus1=node_1339088290.1.2.3 Bus2=node_1339088301.1.2.3 LineCode=CND_20_3F Length=36.62 Units=m
New Line.244829859 Bus1=node_430488137.2 Bus2=node_430489734.2 LineCode=CND_907_1F Length=173.40 Units=m
New Line.246416628 Bus1=node_438076208.1 Bus2=node_438076218.1 LineCode=CND_907_1F Length=80.43 Units=m
New Line.244380069 Bus1=node_428567003.3 Bus2=node_428567009.3 LineCode=CND_907_1F Length=162.97 Units=m
New Line.244554619 Bus1=node_429074774.1 Bus2=node_429074789.1 LineCode=CND_907_1F Length=157.41 Units=m
New Line.244553610 Bus1=node_428910843.1.2.3 Bus2=node_428734113.1.2.3 LineCode=CND_19_3F Length=33.31 Units=m
New Line.244552350 Bus1=node_428569603.1.2.3 Bus2=node_428569614.1.2.3 LineCode=CND_11_3F Length=112.21 Units=m
New Line.244377487 Bus1=node_427913476.1.2.3 Bus2=node_427913535.1.2.3 LineCode=CND_11_3F Length=104.07 Units=m
New Line.244830183 Bus1=node_430663119.2 Bus2=node_430663125.2 LineCode=CND_907_1F Length=401.84 Units=m
New Line.244555040 Bus1=node_428730765.1.2.3 Bus2=node_428732803.1.2.3 LineCode=CND_11_3F Length=286.53 Units=m
New Line.244733396 Bus1=node_429607993.2 Bus2=node_429607994.2 LineCode=CND_907_1F Length=258.37 Units=m
New Line.244554115 Bus1=node_428913381.1 Bus2=node_428913387.1 LineCode=CND_907_1F Length=124.30 Units=m
New Line.244378180 Bus1=node_427910922.3 Bus2=node_427911605.3 LineCode=CND_907_1F Length=144.52 Units=m
New Line.247821246 Bus1=node_445091333.1.2.3 Bus2=node_445042329.1.2.3 LineCode=CND_50_3F Length=40.44 Units=m
New Line.244377545 Bus1=node_428077733.2 Bus2=node_428077522.2 LineCode=CND_907_1F Length=204.01 Units=m
New Line.2610413119 Bus1=node_428570693.2 Bus2=node_2763949827.2 LineCode=CND_996_1F Length=5.20 Units=m
New Line.880957094 Bus1=node_1146850270.3 Bus2=node_1146850281.3 LineCode=CND_902_1F Length=51.37 Units=m
New Line.247820735 Bus1=node_445041140.1.2.3 Bus2=node_445041134.1.2.3 LineCode=CND_4_3F Length=26.73 Units=m
New Line.247366694 Bus1=node_442981437.3 Bus2=node_442980872.3 LineCode=CND_902_1F Length=51.19 Units=m
New Line.244553556 Bus1=node_428910587.3 Bus2=node_428910588.3 LineCode=CND_907_1F Length=67.86 Units=m
...
